council to meet the day following. (MINERVA’S DESCENT TO ITHACA)
continues in the palace of Ulysses, in Ithaca. (THE COUNCIL OF ITHACA)
The scene lies on the sea-shore of Pylos. (THE INTERVIEW OF TELEMACHUS AND NESTOR)
by Pallas, in the shape of her sister Iphthima. (THE CONFERENCE WITH MENELAUS)
on Phæacia. (THE DEPARTURE OF ULYSSES FROM CALYPSO)
and queen of the island. (DREAM)
The same day continues, and the book ends with the night. (THE COURT OF ALCINOUS)
his name, parentage, and fortunes. (THE GUEST)
artifice by which he escaped. (THE ADVENTURES OF THE CICONS, LOTOPHAGI AND CYCLOPS)
prepares, at her instigation, for his voyage to the infernal shades. (ADVENTURES WITH AEOLUS, THE LAESTRYGONS, AND CIRCE)
of horrid spectres, and the cries of the wicked in torments. (THE DESCENT INTO HELL)
of Calypso. With which his narration concludes. (THE SIRENE, SCYLLA, AND CHARYBDIS)
she changes him into the figure of an old (THE BEGGAR)
subjects, take up this entire book. (THE CONVERSATION WITH EUMAEUS)
Eumaeus. (THE RETURN OF TELEMACHUS)
return to Ithaca. (THE DISCOVERY OF ULYSSES TO TELEMACHUS)
remains among the suitors, whose behaviour is described. (THE RETURN)
Eurymachus. (THE FIGHT OF ULYSSES AND IRUS)
particulars. (THE DISCOVERY OF ULYSSES TO EURYCLEA)
the augur, who explains them to the destruction of the wooers. (THE FEAST)
sign to Telemachus, who stands ready armed at his side. (THE BENDING OF ULYSSES’ BOW)
The rest acknowledge their master with all demonstrations of (THE DEATH OF THE SUITORS)
city to visit his father. (THE NEWS)
subjects, which concludes the Odyssey. (THE SOULS)